<configuration> 
  <input> 
    <net-file value="highway.net.xml"/> 
    <route-files value="normal_traffic.rou.xml"/> 
  </input> 
  <time> 
    <begin value="0"/> 
    <end value="300"/> 
    <step-length value="0.1"/> 
  </time> 
</configuration> 
